/*--------------------------------*- C++ -*----------------------------------*\
| =========                 |                                                 |
| \\      /  F ield         | OpenFOAM: The Open Source CFD Toolbox           |
|  \\    /   O peration     | Version:  2312                                  |
|   \\  /    A nd           | Website:  www.openfoam.com                      |
|    \\/     M anipulation  |                                                 |
\*---------------------------------------------------------------------------*/
FoamFile
{
    version     2.0;
    format      ascii;
    arch        "LSB;label=32;scalar=64";
    class       volVectorField;
    location    "0";
    object      U;
}
// * * * * * * * * * * * * * * * * * * * * * * * * * * * * * * * * * * * * * //

dimensions      [0 1 -1 0 0 0 0];

internalField   uniform (2571. 0 0);

boundaryField
{
    wedge_neg
    {
        type            wedge;
    }
    wedge_pos
    {
        type            wedge;
    }
    doubleCone
    {
        type            noSlip;
    }
    inlet
    {
        type            fixedValue;
        value           uniform (2571. 0 0);
    }
    outlet
    {
        type            zeroGradient;
    }
}


// ************************************************************************* //
